#############################################################
#             ______       _    _          _                #
#            (_____ \     \ \  / /        | |               #
#             _____) )   _ \ \/ / |_  ____| |               #
#            |  ____/ | | | )  (|  _)/ _  | |               #
#            | |    | |_| |/ /\ \ |_( (_| | |___            #
#            |_|     \__  /_/  \_\___)__|_|_____)           #
#                   (____/                                  #
#---------------------(version    1.0.4)--------------------#
#       A Python package for random crystal generation      #
#       url: https://github.com/qzhu2017/pyxtal             #
#       @Zhu's group at University of Nevada Las Vegas      #
#############################################################
data_from_pyxtal

_symmetry_space_group_name_H-M 'I-43d'
_symmetry_Int_Tables_number                  220
_symmetry_cell_setting                     cubic
_cell_length_a            4.881838
_cell_length_b            4.881838
_cell_length_c            4.881838
_cell_angle_alpha        90.000000
_cell_angle_beta         90.000000
_cell_angle_gamma        90.000000
_cell_volume            116.345649

loop_
 _symmetry_equiv_pos_site_id
 _symmetry_equiv_pos_as_xyz
1 'x, y, z'
2 '-x+1/2, -y, z+1/2'
3 '-x, y+1/2, -z+1/2'
4 'x+1/2, -y+1/2, -z'
5 'z, x, y'
6 'z+1/2, -x+1/2, -y'
7 '-z+1/2, -x, y+1/2'
8 '-z, x+1/2, -y+1/2'
9 'y, z, x'
10 '-y, z+1/2, -x+1/2'
11 'y+1/2, -z+1/2, -x'
12 '-y+1/2, -z, x+1/2'
13 'y+1/4, x+1/4, z+1/4'
14 '-y+1/4, -x+3/4, z+3/4'
15 'y+3/4, -x+1/4, -z+3/4'
16 '-y+3/4, x+3/4, -z+1/4'
17 'x+1/4, z+1/4, y+1/4'
18 '-x+3/4, z+3/4, -y+1/4'
19 '-x+1/4, -z+3/4, y+3/4'
20 'x+3/4, -z+1/4, -y+3/4'
21 'z+1/4, y+1/4, x+1/4'
22 'z+3/4, -y+1/4, -x+3/4'
23 '-z+3/4, y+3/4, -x+1/4'
24 '-z+1/4, -y+3/4, x+3/4'
25 'x+1/2, y+1/2, z+1/2'
26 '-x+1, -y+1/2, z+1'
27 '-x+1/2, y+1, -z+1'
28 'x+1, -y+1, -z+1/2'
29 'z+1/2, x+1/2, y+1/2'
30 'z+1, -x+1, -y+1/2'
31 '-z+1, -x+1/2, y+1'
32 '-z+1/2, x+1, -y+1'
33 'y+1/2, z+1/2, x+1/2'
34 '-y+1/2, z+1, -x+1'
35 'y+1, -z+1, -x+1/2'
36 '-y+1, -z+1/2, x+1'
37 'y+3/4, x+3/4, z+3/4'
38 '-y+3/4, -x+5/4, z+5/4'
39 'y+5/4, -x+3/4, -z+5/4'
40 '-y+5/4, x+5/4, -z+3/4'
41 'x+3/4, z+3/4, y+3/4'
42 '-x+5/4, z+5/4, -y+3/4'
43 '-x+3/4, -z+5/4, y+5/4'
44 'x+5/4, -z+3/4, -y+5/4'
45 'z+3/4, y+3/4, x+3/4'
46 'z+5/4, -y+3/4, -x+5/4'
47 '-z+5/4, y+5/4, -x+3/4'
48 '-z+3/4, -y+5/4, x+5/4'

loop_
 _atom_site_label
 _atom_site_type_symbol
 _atom_site_symmetry_multiplicity
 _atom_site_fract_x
 _atom_site_fract_y
 _atom_site_fract_z
 _atom_site_occupancy
Li     Li      16     0.073617    0.073617    0.073617 1
#END

